<?xml version="1.0" encoding="utf-8"?>
<!DOCTYPE population SYSTEM "http://www.matsim.org/files/dtd/population_v6.dtd">

<population desc="population written from streaming">

<!-- ====================================================================== -->

	<person id="12052000_12052000_100">
		<plan score="112.83915061460992" selected="yes">
			<activity type="home" link="1655" x="457685.4705887371" y="5740004.041388335" end_time="07:48:38" >
			</activity>
			<leg mode="drt">
			</leg>
			<activity type="work" link="9690" x="456223.8089950741" y="5732282.2554312255" end_time="15:31:17" >
			</activity>
			<leg mode="drt">
			</leg>
			<activity type="home" link="1655" x="457685.4705887371" y="5740004.041388335" >
			</activity>
		</plan>

	</person>

<!-- ====================================================================== -->

	<person id="12052000_12052000_10006">
		<plan score="117.53754967340346" selected="yes">
			<activity type="home" link="7970" x="454255.1210336458" y="5736819.585037125" end_time="07:22:07" >
			</activity>
			<leg mode="drt">
			</leg>
			<activity type="work" link="780" x="456841.2200838027" y="5734761.262163742" end_time="15:21:05" >
			</activity>
			<leg mode="drt">
			</leg>
			<activity type="home" link="7970" x="454255.1210336458" y="5736819.585037125" >
			</activity>
		</plan>

	</person>

<!-- ====================================================================== -->

	<person id="12052000_12052000_1002">
		<plan score="121.0365565728833" selected="yes">
			<activity type="home" link="5146" x="452735.0249250985" y="5732744.258256545" end_time="07:34:07" >
			</activity>
			<leg mode="drt">
			</leg>
			<activity type="work" link="10952" x="454519.58544021053" y="5734308.292099375" end_time="16:01:04" >
			</activity>
			<leg mode="drt">
			</leg>
			<activity type="home" link="5146" x="452735.0249250985" y="5732744.258256545" >
			</activity>
		</plan>

	</person>

<!-- ====================================================================== -->

	<person id="12052000_12052000_10033">
		<plan score="105.87289134587908" selected="yes">
			<activity type="home" link="720" x="454187.3741642981" y="5733684.323885416" end_time="07:33:57" >
			</activity>
			<leg mode="drt" trav_time="00:36:23">
			</leg>
			<activity type="work" link="8639" x="454992.6879005153" y="5732539.43459969" end_time="08:03:39" >
			</activity>
			<leg mode="drt">
			</leg>
			<activity type="work" link="10261" x="455927.8680092795" y="5727875.649825024" end_time="15:33:07" >
			</activity>
			<leg mode="drt">
			</leg>
			<activity type="work" link="8639" x="454992.6879005153" y="5732539.43459969" end_time="16:02:23" >
			</activity>
			<leg mode="drt">
			</leg>
			<activity type="home" link="720" x="454187.3741642981" y="5733684.323885416" >
			</activity>
		</plan>

	</person>

<!-- ====================================================================== -->

	<person id="12052000_12052000_10047">
		<plan score="111.29885831990227" selected="yes">
			<activity type="home" link="3125" x="451542.07019889925" y="5734141.862175951" end_time="07:40:24" >
			</activity>
			<leg mode="drt">
			</leg>
			<activity type="work" link="3222" x="453568.3498347992" y="5732150.94799711" end_time="08:13:20" >
			</activity>
			<leg mode="drt">
			</leg>
			<activity type="work" link="3248" x="453681.9094125228" y="5734148.765209865" end_time="14:52:14" >
			</activity>
			<leg mode="drt">
			</leg>
			<activity type="work" link="3222" x="453568.3498347992" y="5732150.94799711" end_time="15:35:25" >
			</activity>
			<leg mode="drt">
			</leg>
			<activity type="home" link="3125" x="451542.07019889925" y="5734141.862175951" >
			</activity>
		</plan>

	</person>

<!-- ====================================================================== -->

	<person id="12052000_12052000_10048">
		<plan score="123.20150319361407" selected="yes">
			<activity type="home" link="1852" x="452751.95737807086" y="5734662.774418969" end_time="06:58:31" >
			</activity>
			<leg mode="drt">
			</leg>
			<activity type="work" link="7527" x="455547.58655957534" y="5735073.809011681" end_time="15:47:41" >
			</activity>
			<leg mode="drt">
			</leg>
			<activity type="home" link="1852" x="452751.95737807086" y="5734662.774418969" >
			</activity>
		</plan>

	</person>

<!-- ====================================================================== -->

	<person id="12052000_12052000_10073">
		<plan score="126.60539868314373" selected="yes">
			<activity type="home" link="5305" x="455528.91280614905" y="5734229.388500857" end_time="07:01:24" >
			</activity>
			<leg mode="drt">
			</leg>
			<activity type="work" link="7828" x="453563.120270489" y="5734598.298518842" end_time="15:36:02" >
			</activity>
			<leg mode="drt">
			</leg>
			<activity type="home" link="5305" x="455528.91280614905" y="5734229.388500857" >
			</activity>
		</plan>

	</person>

<!-- ====================================================================== -->

	<person id="12052000_12052000_10080">
		<plan score="117.52260872557116" selected="yes">
			<activity type="home" link="1852" x="452751.95737807086" y="5734662.774418969" end_time="08:16:27" >
			</activity>
			<leg mode="drt">
			</leg>
			<activity type="work" link="2274" x="455860.18845334434" y="5730090.2646531975" end_time="16:34:14" >
			</activity>
			<leg mode="drt">
			</leg>
			<activity type="home" link="1852" x="452751.95737807086" y="5734662.774418969" >
			</activity>
		</plan>

	</person>

<!-- ====================================================================== -->

	<person id="12052000_12052000_10095">
		<plan score="124.27101330561544" selected="yes">
			<activity type="home" link="8590" x="457127.4579226989" y="5735018.329735481" end_time="07:09:06" >
			</activity>
			<leg mode="drt">
			</leg>
			<activity type="work" link="1148" x="454877.8649584007" y="5735087.739314684" end_time="16:07:42" >
			</activity>
			<leg mode="drt">
			</leg>
			<activity type="home" link="8590" x="457127.4579226989" y="5735018.329735481" >
			</activity>
		</plan>

	</person>

<!-- ====================================================================== -->

	<person id="12052000_12052000_10132">
		<plan score="116.39416014089109" selected="yes">
			<activity type="home" link="5146" x="452735.0249250985" y="5732744.258256545" end_time="07:08:45" >
			</activity>
			<leg mode="drt">
			</leg>
			<activity type="work" link="9487" x="457007.22051136073" y="5732641.095046899" end_time="15:27:57" >
			</activity>
			<leg mode="drt">
			</leg>
			<activity type="home" link="5146" x="452735.0249250985" y="5732744.258256545" >
			</activity>
		</plan>

	</person>

<!-- ====================================================================== -->

	<person id="12052000_12052000_10153">
		<plan score="124.0453379208622" selected="yes">
			<activity type="home" link="6884" x="454357.1771485771" y="5732882.070468232" end_time="06:19:14" >
			</activity>
			<leg mode="drt">
			</leg>
			<activity type="work" link="6998" x="452603.6789400981" y="5733230.971344818" end_time="15:37:28" >
			</activity>
			<leg mode="drt" trav_time="00:46:29">
			</leg>
			<activity type="home" link="6884" x="454357.1771485771" y="5732882.070468232" >
			</activity>
		</plan>

	</person>

<!-- ====================================================================== -->

	<person id="12052000_12052000_10170">
		<plan score="118.26723296715681" selected="yes">
			<activity type="home" link="2985" x="456805.6909400894" y="5732583.723845854" end_time="07:42:54" >
			</activity>
			<leg mode="drt">
			</leg>
			<activity type="work" link="3777" x="454567.40772059304" y="5735232.801906051" end_time="15:17:16" >
			</activity>
			<leg mode="drt">
			</leg>
			<activity type="home" link="2985" x="456805.6909400894" y="5732583.723845854" >
			</activity>
		</plan>

	</person>

<!-- ====================================================================== -->

	<person id="12052000_12052000_1019">
		<plan score="126.1372947240995" selected="yes">
			<activity type="home" link="3731" x="454004.7609115069" y="5733684.3999960935" end_time="07:21:55" >
			</activity>
			<leg mode="drt">
			</leg>
			<activity type="work" link="1852" x="452751.95737807086" y="5734662.774418969" end_time="15:44:16" >
			</activity>
			<leg mode="drt">
			</leg>
			<activity type="home" link="3731" x="454004.7609115069" y="5733684.3999960935" >
			</activity>
		</plan>

	</person>

<!-- ====================================================================== -->

	<person id="12052000_12052000_10197">
		<plan score="123.63903809838507" selected="yes">
			<activity type="home" link="10922" x="456291.4003162279" y="5731526.293033428" end_time="07:18:28" >
			</activity>
			<leg mode="drt" trav_time="00:39:20">
			</leg>
			<activity type="work" link="7177" x="457013.96445083566" y="5730196.659539225" end_time="15:53:10" >
			</activity>
			<leg mode="drt" trav_time="00:39:20">
			</leg>
			<activity type="home" link="10922" x="456291.4003162279" y="5731526.293033428" >
			</activity>
		</plan>

	</person>

<!-- ====================================================================== -->

	<person id="12052000_12052000_10218">
		<plan score="117.08466648019757" selected="yes">
			<activity type="home" link="702" x="453853.1204235007" y="5732587.264232468" end_time="08:13:59" >
			</activity>
			<leg mode="drt">
			</leg>
			<activity type="work" link="6714" x="453405.68599153747" y="5737524.517275036" end_time="16:02:29" >
			</activity>
			<leg mode="drt">
			</leg>
			<activity type="home" link="702" x="453853.1204235007" y="5732587.264232468" >
			</activity>
		</plan>

	</person>

<!-- ====================================================================== -->

	<person id="12052000_12052000_10229">
		<plan score="122.27210462887513" selected="yes">
			<activity type="home" link="7831" x="451485.59321903466" y="5734592.956399932" end_time="08:38:51" >
			</activity>
			<leg mode="drt">
			</leg>
			<activity type="work" link="5998" x="453992.1177975704" y="5732766.764740788" end_time="17:06:07" >
			</activity>
			<leg mode="drt">
			</leg>
			<activity type="home" link="7831" x="451485.59321903466" y="5734592.956399932" >
			</activity>
		</plan>

	</person>

<!-- ====================================================================== -->

	<person id="12052000_12052000_10241">
		<plan score="121.20528389867133" selected="yes">
			<activity type="home" link="4497" x="453769.5414704818" y="5733256.405528071" end_time="08:12:25" >
			</activity>
			<leg mode="drt">
			</leg>
			<activity type="work" link="10674" x="457400.4832700949" y="5739448.688386217" end_time="15:53:35" >
			</activity>
			<leg mode="drt">
			</leg>
			<activity type="home" link="4497" x="453769.5414704818" y="5733256.405528071" >
			</activity>
		</plan>

	</person>

<!-- ====================================================================== -->

	<person id="12052000_12052000_10288">
		<plan score="124.79311263881411" selected="yes">
			<activity type="home" link="6630" x="457285.68710582174" y="5736867.013950531" end_time="06:07:29" >
			</activity>
			<leg mode="drt">
			</leg>
			<activity type="work" link="2514" x="454705.37252495" y="5734529.330175113" end_time="15:35:31" >
			</activity>
			<leg mode="drt">
			</leg>
			<activity type="home" link="6630" x="457285.68710582174" y="5736867.013950531" >
			</activity>
		</plan>

	</person>

<!-- ====================================================================== -->

	<person id="12052000_12052000_1030">
		<plan score="121.83321869597249" selected="yes">
			<activity type="home" link="732" x="454476.640294092" y="5732744.589894033" end_time="06:19:09" >
			</activity>
			<leg mode="drt" trav_time="00:50:33">
			</leg>
			<activity type="work" link="2312" x="452563.9912586977" y="5733094.287543973" end_time="15:00:42" >
			</activity>
			<leg mode="drt" trav_time="00:50:33">
			</leg>
			<activity type="home" link="732" x="454476.640294092" y="5732744.589894033" >
			</activity>
		</plan>

	</person>

<!-- ====================================================================== -->

	<person id="12052000_12052000_10305">
		<plan score="120.9540917974907" selected="yes">
			<activity type="home" link="7078" x="454092.7867180213" y="5734780.21713807" end_time="07:40:30" >
			</activity>
			<leg mode="drt">
			</leg>
			<activity type="work" link="884" x="456642.4892957408" y="5731890.974067677" end_time="16:42:57" >
			</activity>
			<leg mode="drt">
			</leg>
			<activity type="home" link="7078" x="454092.7867180213" y="5734780.21713807" >
			</activity>
		</plan>

	</person>

<!-- ====================================================================== -->

	<person id="12052000_12052000_10314">
		<plan score="118.78279036106827" selected="yes">
			<activity type="home" link="2788" x="452339.9974193233" y="5734625.377120691" end_time="08:37:33" >
			</activity>
			<leg mode="drt">
			</leg>
			<activity type="work" link="9914" x="453647.34721827053" y="5729346.524435069" end_time="17:04:38" >
			</activity>
			<leg mode="drt">
			</leg>
			<activity type="home" link="2788" x="452339.9974193233" y="5734625.377120691" >
			</activity>
		</plan>

	</person>

<!-- ====================================================================== -->

	<person id="12052000_12052000_10344">
		<plan score="123.50054704613895" selected="yes">
			<activity type="home" link="10870" x="455574.0564578941" y="5730661.351087037" end_time="06:10:10" >
			</activity>
			<leg mode="drt">
			</leg>
			<activity type="work" link="1586" x="454611.18276546197" y="5732958.868981643" end_time="15:54:42" >
			</activity>
			<leg mode="drt">
			</leg>
			<activity type="home" link="10870" x="455574.0564578941" y="5730661.351087037" >
			</activity>
		</plan>

	</person>

<!-- ====================================================================== -->

	<person id="12052000_12052000_10349">
		<plan score="124.23518076723016" selected="yes">
			<activity type="home" link="7521" x="457625.2248898296" y="5734873.354529035" end_time="06:22:04" >
			</activity>
			<leg mode="drt">
			</leg>
			<activity type="work" link="3731" x="454004.7609115069" y="5733684.3999960935" end_time="15:38:50" >
			</activity>
			<leg mode="drt">
			</leg>
			<activity type="home" link="7521" x="457625.2248898296" y="5734873.354529035" >
			</activity>
		</plan>

	</person>

<!-- ====================================================================== -->

	<person id="12052000_12052000_10350">
		<plan score="125.25305881637875" selected="yes">
			<activity type="home" link="746" x="457355.65796498285" y="5738447.194463223" end_time="06:33:33" >
			</activity>
			<leg mode="drt">
			</leg>
			<activity type="work" link="5293" x="456867.0355955018" y="5736898.944059912" end_time="15:42:54" >
			</activity>
			<leg mode="drt" trav_time="00:42:12">
			</leg>
			<activity type="home" link="746" x="457355.65796498285" y="5738447.194463223" >
			</activity>
		</plan>

	</person>

<!-- ====================================================================== -->

	<person id="12052000_12052000_10410">
		<plan score="117.30121151025403" selected="yes">
			<activity type="home" link="9914" x="453647.34721827053" y="5729346.524435069" end_time="08:31:36" >
			</activity>
			<leg mode="drt">
			</leg>
			<activity type="work" link="7859" x="455842.6605124701" y="5733590.462009419" end_time="16:35:11" >
			</activity>
			<leg mode="drt">
			</leg>
			<activity type="home" link="9914" x="453647.34721827053" y="5729346.524435069" >
			</activity>
		</plan>

	</person>

<!-- ====================================================================== -->

	<person id="12052000_12052000_10430">
		<plan score="118.1014256702506" selected="yes">
			<activity type="home" link="7045" x="459630.4756125358" y="5734808.540643924" end_time="07:29:05" >
			</activity>
			<leg mode="drt">
			</leg>
			<activity type="work" link="5158" x="452319.76192260714" y="5733043.109566166" end_time="16:08:08" >
			</activity>
			<leg mode="drt">
			</leg>
			<activity type="home" link="7045" x="459630.4756125358" y="5734808.540643924" >
			</activity>
		</plan>

	</person>

<!-- ====================================================================== -->

	<person id="12052000_12052000_10432">
		<plan score="107.58724021737946" selected="yes">
			<activity type="home" link="3666" x="455005.4749077175" y="5734226.567417889" end_time="07:36:01" >
			</activity>
			<leg mode="drt">
			</leg>
			<activity type="work" link="1756" x="455648.1333556005" y="5734859.361367292" end_time="08:04:57" >
			</activity>
			<leg mode="drt">
			</leg>
			<activity type="work" link="1602" x="453144.45720025623" y="5731833.529973404" end_time="15:56:52" >
			</activity>
			<leg mode="drt">
			</leg>
			<activity type="work" link="1756" x="455648.1333556005" y="5734859.361367292" end_time="16:21:44" >
			</activity>
			<leg mode="drt" trav_time="00:23:26">
			</leg>
			<activity type="home" link="3666" x="455005.4749077175" y="5734226.567417889" >
			</activity>
		</plan>

	</person>

<!-- ====================================================================== -->

	<person id="12052000_12052000_10477">
		<plan score="119.80496210685472" selected="yes">
			<activity type="home" link="1655" x="457532.5611368221" y="5740177.6469138125" end_time="06:23:20" >
			</activity>
			<leg mode="drt">
			</leg>
			<activity type="work" link="7545" x="457430.25077633647" y="5736546.870013799" end_time="14:53:28" >
			</activity>
			<leg mode="drt">
			</leg>
			<activity type="home" link="1655" x="457532.5611368221" y="5740177.6469138125" >
			</activity>
		</plan>

	</person>

<!-- ====================================================================== -->

	<person id="12052000_12052000_10531">
		<plan score="115.92602305006642" selected="yes">
			<activity type="home" link="10952" x="454519.58544021053" y="5734308.292099375" end_time="07:04:48" >
			</activity>
			<leg mode="drt">
			</leg>
			<activity type="work" link="1756" x="455648.1333556005" y="5734859.361367292" end_time="07:36:17" >
			</activity>
			<leg mode="drt">
			</leg>
			<activity type="work" link="9387" x="453347.32400637923" y="5737100.26565213" end_time="15:43:42" >
			</activity>
			<leg mode="drt">
			</leg>
			<activity type="work" link="1756" x="455648.1333556005" y="5734859.361367292" end_time="15:39:40" >
			</activity>
			<leg mode="drt">
			</leg>
			<activity type="home" link="10952" x="454519.58544021053" y="5734308.292099375" >
			</activity>
		</plan>

	</person>

<!-- ====================================================================== -->

	<person id="12052000_12052000_10542">
		<plan score="111.48648835767729" selected="yes">
			<activity type="home" link="4762" x="458213.5415784059" y="5735045.349124315" end_time="07:39:54" >
			</activity>
			<leg mode="drt">
			</leg>
			<activity type="work" link="1756" x="455648.1333556005" y="5734859.361367292" end_time="08:41:18" >
			</activity>
			<leg mode="drt">
			</leg>
			<activity type="work" link="9487" x="457007.22051136073" y="5732641.095046899" end_time="16:05:19" >
			</activity>
			<leg mode="drt">
			</leg>
			<activity type="work" link="1756" x="455648.1333556005" y="5734859.361367292" end_time="16:19:56" >
			</activity>
			<leg mode="drt">
			</leg>
			<activity type="home" link="4762" x="458213.5415784059" y="5735045.349124315" >
			</activity>
		</plan>

	</person>

<!-- ====================================================================== -->

	<person id="12052000_12052000_10543">
		<plan score="119.35732359540935" selected="yes">
			<activity type="home" link="6889" x="454225.5410990645" y="5732629.806116433" end_time="07:28:49" >
			</activity>
			<leg mode="drt" trav_time="01:01:31">
			</leg>
			<activity type="work" link="4228" x="456457.2782770972" y="5731842.445252015" end_time="16:02:54" >
			</activity>
			<leg mode="drt" trav_time="01:01:31">
			</leg>
			<activity type="home" link="6889" x="454225.5410990645" y="5732629.806116433" >
			</activity>
		</plan>

	</person>

<!-- ====================================================================== -->

	<person id="12052000_12052000_10546">
		<plan score="120.22466701563616" selected="yes">
			<activity type="home" link="3837" x="451314.8589856549" y="5733766.739080378" end_time="08:33:27" >
			</activity>
			<leg mode="drt" trav_time="00:49:56">
			</leg>
			<activity type="work" link="2318" x="453092.3793805841" y="5733039.164677221" end_time="16:36:08" >
			</activity>
			<leg mode="drt">
			</leg>
			<activity type="home" link="3837" x="451314.8589856549" y="5733766.739080378" >
			</activity>
		</plan>

	</person>

<!-- ====================================================================== -->

	<person id="12052000_12052000_10572">
		<plan score="123.65182138611205" selected="yes">
			<activity type="home" link="10126" x="454278.9876957165" y="5737782.577865755" end_time="07:42:47" >
			</activity>
			<leg mode="drt">
			</leg>
			<activity type="work" link="7828" x="453563.120270489" y="5734598.298518842" end_time="15:55:57" >
			</activity>
			<leg mode="drt">
			</leg>
			<activity type="home" link="10126" x="454278.9876957165" y="5737782.577865755" >
			</activity>
		</plan>

	</person>

<!-- ====================================================================== -->

	<person id="12052000_12052000_10593">
		<plan score="123.67881036850757" selected="yes">
			<activity type="home" link="6692" x="456207.2676296206" y="5728282.500764844" end_time="06:45:49" >
			</activity>
			<leg mode="drt">
			</leg>
			<activity type="work" link="5825" x="455699.7585829403" y="5730316.898205463" end_time="15:33:20" >
			</activity>
			<leg mode="drt">
			</leg>
			<activity type="home" link="6692" x="456207.2676296206" y="5728282.500764844" >
			</activity>
		</plan>

	</person>

<!-- ====================================================================== -->

	<person id="12052000_12052000_1060">
		<plan score="113.8189402590951" selected="yes">
			<activity type="home" link="1828" x="454390.18041532586" y="5730184.107660244" end_time="07:28:16" >
			</activity>
			<leg mode="drt" trav_time="00:15:51">
			</leg>
			<activity type="work" link="5777" x="453868.6396599353" y="5730500.609266827" end_time="07:52:52" >
			</activity>
			<leg mode="drt">
			</leg>
			<activity type="work" link="7988" x="454073.7100563418" y="5738064.293666355" end_time="15:24:28" >
			</activity>
			<leg mode="drt">
			</leg>
			<activity type="work" link="5777" x="453868.6396599353" y="5730500.609266827" end_time="15:50:29" >
			</activity>
			<leg mode="drt" trav_time="00:15:51">
			</leg>
			<activity type="home" link="1828" x="454390.18041532586" y="5730184.107660244" >
			</activity>
		</plan>

	</person>

<!-- ====================================================================== -->

	<person id="12052000_12052000_10603">
		<plan score="124.2750450535772" selected="yes">
			<activity type="home" link="3248" x="453681.9094125228" y="5734148.765209865" end_time="08:24:16" >
			</activity>
			<leg mode="drt">
			</leg>
			<activity type="work" link="1497" x="454869.3150904305" y="5734466.793613725" end_time="16:03:54" >
			</activity>
			<leg mode="drt">
			</leg>
			<activity type="home" link="3248" x="453681.9094125228" y="5734148.765209865" >
			</activity>
		</plan>

	</person>

<!-- ====================================================================== -->

	<person id="12052000_12052000_10606">
		<plan score="121.31882674283182" selected="yes">
			<activity type="home" link="5303" x="455609.2915790105" y="5734484.595454456" end_time="07:40:25" >
			</activity>
			<leg mode="drt">
			</leg>
			<activity type="work" link="5624" x="457615.14197534305" y="5740408.730750283" end_time="15:29:24" >
			</activity>
			<leg mode="drt">
			</leg>
			<activity type="home" link="5303" x="455609.2915790105" y="5734484.595454456" >
			</activity>
		</plan>

	</person>

<!-- ====================================================================== -->

	<person id="12052000_12052000_10631">
		<plan score="121.10731577548924" selected="yes">
			<activity type="home" link="728" x="454229.11974437407" y="5733096.985184894" end_time="07:05:07" >
			</activity>
			<leg mode="drt">
			</leg>
			<activity type="work" link="6998" x="452603.6789400981" y="5733230.971344818" end_time="14:36:05" >
			</activity>
			<leg mode="drt">
			</leg>
			<activity type="home" link="728" x="454229.11974437407" y="5733096.985184894" >
			</activity>
		</plan>

	</person>

<!-- ====================================================================== -->

	<person id="12052000_12052000_10646">
		<plan score="109.19489060190914" selected="yes">
			<activity type="home" link="10890" x="456390.6742326077" y="5730196.831979621" end_time="06:37:20" >
			</activity>
			<leg mode="drt" trav_time="01:06:02">
			</leg>
			<activity type="work" link="5777" x="453868.6396599353" y="5730500.609266827" end_time="06:53:34" >
			</activity>
			<leg mode="drt">
			</leg>
			<activity type="work" link="4446" x="453722.68421452644" y="5732948.420724108" end_time="14:34:47" >
			</activity>
			<leg mode="drt">
			</leg>
			<activity type="work" link="5777" x="453868.6396599353" y="5730500.609266827" end_time="15:25:56" >
			</activity>
			<leg mode="drt">
			</leg>
			<activity type="home" link="10890" x="456390.6742326077" y="5730196.831979621" >
			</activity>
		</plan>

	</person>

<!-- ====================================================================== -->

	<person id="12052000_12052000_10649">
		<plan score="125.89705617790331" selected="yes">
			<activity type="home" link="10688" x="454727.56076727837" y="5741251.774803425" end_time="08:00:17" >
			</activity>
			<leg mode="drt" trav_time="00:25:32">
			</leg>
			<activity type="work" link="2743" x="454732.9691243803" y="5740269.198095854" end_time="16:28:02" >
			</activity>
			<leg mode="drt" trav_time="00:25:32">
			</leg>
			<activity type="home" link="10688" x="454727.56076727837" y="5741251.774803425" >
			</activity>
		</plan>

	</person>

<!-- ====================================================================== -->

	<person id="12052000_12052000_10659">
		<plan score="125.0494775597923" selected="yes">
			<activity type="home" link="6382" x="454766.9388785937" y="5732053.66044849" end_time="06:44:44" >
			</activity>
			<leg mode="drt">
			</leg>
			<activity type="work" link="4497" x="453769.5414704818" y="5733256.405528071" end_time="15:27:20" >
			</activity>
			<leg mode="drt">
			</leg>
			<activity type="home" link="6382" x="454766.9388785937" y="5732053.66044849" >
			</activity>
		</plan>

	</person>

<!-- ====================================================================== -->

	<person id="12052000_12052000_10679">
		<plan score="109.19191843138745" selected="yes">
			<activity type="home" link="2374" x="452622.4390447928" y="5739174.748212437" end_time="07:46:22" >
			</activity>
			<leg mode="drt">
			</leg>
			<activity type="work" link="9431" x="456513.5414108484" y="5728480.029595459" end_time="15:00:55" >
			</activity>
			<leg mode="drt">
			</leg>
			<activity type="home" link="2374" x="452622.4390447928" y="5739174.748212437" >
			</activity>
		</plan>

	</person>

<!-- ====================================================================== -->

	<person id="12052000_12052000_10684">
		<plan score="119.27392152122637" selected="yes">
			<activity type="home" link="702" x="453853.1204235007" y="5732587.264232468" end_time="08:01:46" >
			</activity>
			<leg mode="drt" trav_time="00:07:21">
			</leg>
			<activity type="work" link="1292" x="453875.2729709694" y="5732305.067969019" end_time="08:51:18" >
			</activity>
			<leg mode="drt">
			</leg>
			<activity type="work" link="3248" x="453681.9094125228" y="5734148.765209865" end_time="15:40:11" >
			</activity>
			<leg mode="drt">
			</leg>
			<activity type="work" link="1292" x="453875.2729709694" y="5732305.067969019" end_time="15:27:57" >
			</activity>
			<leg mode="drt" trav_time="00:07:21">
			</leg>
			<activity type="home" link="702" x="453853.1204235007" y="5732587.264232468" >
			</activity>
		</plan>

	</person>

<!-- ====================================================================== -->

	<person id="12052000_12052000_10699">
		<plan score="121.31045430726736" selected="yes">
			<activity type="home" link="4497" x="453769.5414704818" y="5733256.405528071" end_time="07:33:13" >
			</activity>
			<leg mode="drt">
			</leg>
			<activity type="work" link="1292" x="453875.2729709694" y="5732305.067969019" end_time="08:09:01" >
			</activity>
			<leg mode="drt">
			</leg>
			<activity type="work" link="9962" x="453747.23216289293" y="5733528.116318689" end_time="15:35:15" >
			</activity>
			<leg mode="drt">
			</leg>
			<activity type="work" link="1292" x="453875.2729709694" y="5732305.067969019" end_time="15:42:47" >
			</activity>
			<leg mode="drt">
			</leg>
			<activity type="home" link="4497" x="453769.5414704818" y="5733256.405528071" >
			</activity>
		</plan>

	</person>

<!-- ====================================================================== -->

	<person id="12052000_12052000_10719">
		<plan score="117.38458993465466" selected="yes">
			<activity type="home" link="4631" x="454101.72204021673" y="5733410.617210176" end_time="06:53:13" >
			</activity>
			<leg mode="drt">
			</leg>
			<activity type="work" link="1292" x="453875.2729709694" y="5732305.067969019" end_time="07:20:19" >
			</activity>
			<leg mode="drt">
			</leg>
			<activity type="work" link="5489" x="454451.45330613916" y="5736819.760032186" end_time="14:49:16" >
			</activity>
			<leg mode="drt">
			</leg>
			<activity type="work" link="1292" x="453875.2729709694" y="5732305.067969019" end_time="15:13:25" >
			</activity>
			<leg mode="drt">
			</leg>
			<activity type="home" link="4631" x="454101.72204021673" y="5733410.617210176" >
			</activity>
		</plan>

	</person>
